/*--------------------------------*- C++ -*----------------------------------*\
  =========                 |
  \\      /  F ield         | OpenFOAM: The Open Source CFD Toolbox
   \\    /   O peration     | Website:  https://openfoam.org
    \\  /    A nd           | Version:  7
     \\/     M anipulation  |
\*---------------------------------------------------------------------------*/
FoamFile
{
    version     2.0;
    format      ascii;
    class       volScalarField;
    location    "0";
    object      omega;
}
// * * * * * * * * * * * * * * * * * * * * * * * * * * * * * * * * * * * * * //

dimensions      [0 0 -1 0 0 0 0];

internalField   uniform  950;

boundaryField
{
    inletP
    {
        type            fixedValue;
        value           $internalField;
    }

    outletP
    {
        type            fixedValue;
        value           $internalField;
        //type            inletOutlet;
        //inletValue      $internalField;
        //value           $internalField;
    }

    walls
    {
        type            omegaWallFunction;
        value           $internalField;
    }

    front
    {
        type            empty;
    }

    back
    {
        type            empty;
    }
}

// ************************************************************************* //
